#!/sbin/sh

#################
# Initialization
#################

umask 022

# echo before loading util_functions
ui_print() { echo "$1"; }

require_new_magisk() {
  ui_print "*******************************"
  ui_print " Please install Magisk v20.4+! "
  ui_print "*******************************"
  exit 1
}

#########################
# Load util_functions.sh
#########################

OUTFD=$2
ZIPFILE=$3

mount /data 2>/dev/null

[ -f /data/adb/magisk/util_functions.sh ] || require_new_magisk
. /data/adb/magisk/util_functions.sh
[ $MAGISK_VER_CODE -lt 20400 ] && require_new_magisk

if ! $BOOTMODE; then
  ui_print " "
  ui_print "This is a magisk module"
  ui_print " Aborting....."
  ui_print " "
  ui_print " Go and flash in magisk"
  ui_print " "
  exit 0
fi

echo " "
echo " Module Template by @Jai_08 // @cool_modules "
#Do not remove credit if you are using part of this template.
echo "  "

install_module

remove() {
  rm -rf /data/adb/modules_update/$MODID 2>/dev/null
  rm -rf /data/adb/modules/$MODID 2>/dev/null
}

tar -xf $MODPATH/utils/myutils -C $MODPATH/utils/ 2>/dev/null

zipp=$MODPATH/utils/zip
zipa=$MODPATH/utils/zipalign
bkpath=$MODPATH/OG/
mp=$NVBASE/modules

set_perm $zipp 0 0 0755
set_perm $zipa 0 0 0755

file_paths="/system/system_ext/priv-app/SystemUI/SystemUI.apk
/system/system_ext/priv-app/SystemUIGoogle/SystemUIGoogle.apk
/system/priv-app/TsSystemUI/TsSystemUI.apk
/system/priv-app/SystemUIGoogle/SystemUIGoogle.apk
/system/priv-app/SystemUIWithLegacyRecents/SystemUIWithLegacyRecents.apk
/system/system_ext/priv-app/MtkSystemUI/MtkSystemUI.apk
/system/system_ext/priv-app/ParanoidSystemUI/ParanoidSystemUI.apk
/system/system_ext/priv-app/StatixSystemUI/StatixSystemUI.apk
/system/system_ext/priv-app/RisingSystemUI/RisingSystemUI.apk
/system/priv-app/AsusSystemUI/AsusSystemUI.apk
/system/priv-app/AsusSystemUIWW/AsusSystemUIWW.apk
/system/product/priv-app/MtkSystemUI/MtkSystemUI.apk
/system/product/priv-app/SystemUIGoogle/SystemUIGoogle.apk
/system/product/priv-app/SystemUI/SystemUI.apk
/system/priv-app/SystemUI/SystemUI.apk
/system/product/priv-app/OPSystemUI/OPSystemUI.apk
/system/product/priv-app/VinSystemUI/VinSystemUI.apk
/system/system_ext/priv-app/OPSystemUI/OPSystemUI.apk
/system/system_ext/priv-app/WeebSystemUI/WeebSystemUI.apk
/system/system_ext/priv-app/sysuia/sysuia.apk
/system/system_ext/priv-app/TranSystemUI/TranSystemUI.apk
/system/system_ext/priv-app/MiuiSystemUI/MiuiSystemUI.apk
/system/product/priv-app/MiuiSystemUI/MiuiSystemUI.apk"

found=0

for apkpath in $file_paths; do
    if [ -f "$apkpath" ]; then
        spath=$(dirname "$apkpath")
        apkname=$(basename "$spath")

        echo " "
        echo " Processing....."
        echo " "
        echo " SystemUI found: $apkname.apk"

        found=1
    fi
done

if [ "$found" -eq 0 ]; then
    echo " "
    echo " This looks like a non-supported ROM..."
    echo " Report in support group @IconifyDiscussion"
    exit 1
fi

insmodules=$(ls $mp)
file=$MODPATH/jai/$apkname.apk

mkdir -p $MODPATH/jai
mkdir -p $bkpath

cp -f $spath/$apkname.apk $bkpath

for i in $insmodules; do
  if [ -f "$mp/$i/OG/$apkname.apk" ]; then
    echo " Existing SystemUI Patcher module detected, Merging the patches.."
    cp -f $mp/$i/OG/$apkname.apk $bkpath
    break
  fi
done

cp -f $spath/$apkname.apk $MODPATH/jai/
cd $MODPATH/substratumXML/SystemUI/

if $zipp -qq -r $file *; then
  echo " "
  echo " Installing Patches..... "
else
  echo " "
  echo " Failed to Patch your SystemUI "
  echo " Try again, if same issue report in support group @cool_modules69 "
  remove
  exit 1
fi

mkdir -p $MODPATH/$spath

if $zipa -f 4 $file $MODPATH/$spath/$apkname.apk; then
echo " "
  echo " Installed Successfully"
else
  echo " "
  echo " Failed to Install, Report in support group to add support @cool_modules69 "
  remove
  exit 1
fi

rm -r $MODPATH/jai/
rm -r $MODPATH/utils/
rm -r $MODPATH/substratumXML

sed -i "s|myname|$apkname|g" $MODPATH/post-fs-data.sh &>/dev/null
sed -i "s|mypath|$spath|g" $MODPATH/post-fs-data.sh &>/dev/null

rm -r /$mp/*/$spath/$apkname.apk

echo " "
echo " Reboot now to apply changes"
echo " "

exit 0
